Version 4.1
SHEET 1 3460 752
WIRE 64 -256 64 -480
WIRE 144 -256 64 -256
WIRE 992 -256 144 -256
WIRE 1904 -256 992 -256
WIRE 2768 -256 1904 -256
WIRE 3312 -256 2768 -256
WIRE 2560 -64 2512 -64
WIRE 2720 -64 2640 -64
WIRE 2912 -64 2720 -64
WIRE 3168 -32 3168 -64
WIRE 3216 -32 3168 -32
WIRE 3296 -32 3216 -32
WIRE 3456 -32 3376 -32
WIRE 1120 16 912 16
WIRE 2000 16 1824 16
WIRE 848 48 848 0
WIRE 1744 48 1744 -16
WIRE 144 64 144 -256
WIRE 3312 64 3312 -256
WIRE 112 80 -112 80
WIRE 2768 80 2768 -256
WIRE 3216 80 3216 -32
WIRE 3280 80 3216 80
WIRE 1904 96 1904 -256
WIRE 2720 96 2720 -64
WIRE 2736 96 2720 96
WIRE 3456 96 3456 -32
WIRE 3456 96 3344 96
WIRE 112 112 48 112
WIRE 992 112 992 -256
WIRE 1824 112 1824 16
WIRE 1872 112 1824 112
WIRE 2912 112 2912 -64
WIRE 2912 112 2800 112
WIRE 3280 112 2912 112
WIRE 912 128 912 16
WIRE 960 128 912 128
WIRE 2000 128 2000 16
WIRE 2000 128 1936 128
WIRE 2240 128 2000 128
WIRE 2400 128 2320 128
WIRE 2512 128 2512 -64
WIRE 2512 128 2464 128
WIRE 2560 128 2512 128
WIRE 2688 128 2624 128
WIRE 2736 128 2688 128
WIRE 1120 144 1120 16
WIRE 1120 144 1024 144
WIRE 1392 144 1120 144
WIRE 1520 144 1472 144
WIRE 1584 144 1520 144
WIRE 1744 144 1744 112
WIRE 1744 144 1664 144
WIRE 1872 144 1744 144
WIRE 528 160 288 160
WIRE 640 160 592 160
WIRE 688 160 640 160
WIRE 848 160 848 128
WIRE 848 160 752 160
WIRE 960 160 848 160
WIRE 2688 176 2688 128
WIRE 48 208 48 192
WIRE 112 208 48 208
WIRE 112 240 -112 240
WIRE 1520 272 1520 144
WIRE 1696 272 1520 272
WIRE 2000 272 2000 128
WIRE 2000 272 1760 272
WIRE 640 304 640 160
WIRE 832 304 640 304
WIRE 1120 304 1120 144
WIRE 1120 304 912 304
WIRE 2688 304 2688 256
FLAG 224 224 0
FLAG 848 0 0
FLAG 1744 -16 0
FLAG 2688 304 0
FLAG 3168 -144 0
FLAG 64 -560 0
SYMBOL OpAmps\\AD8221 144 160 R0
SYMATTR InstName U1
SYMBOL res 32 96 R0
SYMATTR InstName R1
SYMATTR Value 5.5k
SYMBOL OpAmps\\ADTL084 992 80 R0
SYMATTR InstName U2
SYMBOL cap 592 144 R90
WINDOW 0 0 32 VBottom 2
WINDOW 3 32 32 VTop 2
SYMATTR InstName C1
SYMATTR Value 1.5µ
SYMBOL cap 752 144 R90
WINDOW 0 0 32 VBottom 2
WINDOW 3 32 32 VTop 2
SYMATTR InstName C2
SYMATTR Value 1.5µ
SYMBOL res 832 32 R0
SYMATTR InstName R2
SYMATTR Value 24.9k
SYMBOL res 928 288 R90
WINDOW 0 0 56 VBottom 2
WINDOW 3 32 56 VTop 2
SYMATTR InstName R3
SYMATTR Value 3.66k
SYMBOL res 1488 128 R90
WINDOW 0 0 56 VBottom 2
WINDOW 3 32 56 VTop 2
SYMATTR InstName R4
SYMATTR Value 16.5k
SYMBOL res 1680 128 R90
WINDOW 0 0 56 VBottom 2
WINDOW 3 32 56 VTop 2
SYMATTR InstName R5
SYMATTR Value 59.2k
SYMBOL cap 1728 48 R0
SYMATTR InstName C3
SYMATTR Value 560n
SYMBOL OpAmps\\ADTL084 1904 64 R0
SYMATTR InstName U3
SYMBOL cap 1760 256 R90
WINDOW 0 0 32 VBottom 2
WINDOW 3 32 32 VTop 2
SYMATTR InstName C4
SYMATTR Value 56n
SYMBOL res 2336 112 R90
WINDOW 0 0 56 VBottom 2
WINDOW 3 32 56 VTop 2
SYMATTR InstName R6
SYMATTR Value 22k
SYMBOL cap 2464 112 R90
WINDOW 0 0 32 VBottom 2
WINDOW 3 32 32 VTop 2
SYMATTR InstName C5
SYMATTR Value 220n
SYMBOL polcap 2560 144 R270
WINDOW 0 32 32 VTop 2
WINDOW 3 0 32 VBottom 2
SYMATTR InstName C6
SYMATTR Value 10µ
SYMBOL res 2656 -80 R90
WINDOW 0 0 56 VBottom 2
WINDOW 3 32 56 VTop 2
SYMATTR InstName R7
SYMATTR Value 12
SYMBOL res 2672 160 R0
SYMATTR InstName R8
SYMATTR Value 270k
SYMBOL OpAmps\\ADTL084 2768 48 R0
SYMATTR InstName U4
SYMBOL OpAmps\\ADTL084 3312 32 R0
SYMATTR InstName U5
SYMBOL res 3392 -48 R90
WINDOW 0 0 56 VBottom 2
WINDOW 3 32 56 VTop 2
SYMATTR InstName R9
SYMATTR Value 50k
SYMBOL res 3152 -160 R0
SYMATTR InstName R10
SYMATTR Value 100
SYMBOL voltage 64 -464 R180
WINDOW 0 24 96 Left 2
WINDOW 3 24 16 Left 2
SYMATTR InstName V1
SYMBOL voltage 160 720 R180
WINDOW 0 24 96 Left 2
WINDOW 3 24 16 Left 2
SYMATTR InstName V2
